Circuit: * C:\Users\milwe\Documents\PWr\3 rok\5th\Microcontrollers\Project\LTSpice\Draft1.asc

Direct Newton iteration for .op point succeeded.
Ignoring empty pin current: Ix(u1:6)
Ignoring empty pin current: Ix(u1:7)
Ignoring empty pin current: Ix(u1:6)
Ignoring empty pin current: Ix(u1:7)

Date: Tue Apr 05 17:28:28 2022
Total elapsed time: 0.579 seconds.

tnom = 27
temp = 27
method = modified trap
totiter = 136587
traniter = 136575
tranpoints = 54223
accept = 39745
rejected = 14478
matrix size = 13
fillins = 0
solver = Normal
Matrix Compiler1: 496 bytes object code size  0.1/0.1/[0.1]
Matrix Compiler2: 913 bytes object code size  0.1/0.1/[0.1]

